Version 4
SHEET 1 1568 680
WIRE 432 -48 240 -48
WIRE 608 -48 432 -48
WIRE 800 -48 608 -48
WIRE 928 -48 880 -48
WIRE 1008 -48 928 -48
WIRE 1216 -48 1088 -48
WIRE 1216 -32 1216 -48
WIRE 928 -16 928 -48
WIRE 432 48 432 -48
WIRE 1216 80 1216 48
WIRE 240 96 240 32
WIRE 368 96 240 96
WIRE 608 128 608 -48
WIRE 432 176 432 144
WIRE 544 176 432 176
WIRE 240 240 240 96
WIRE 432 240 432 176
WIRE 608 240 608 224
WIRE 240 352 240 320
WIRE 432 352 432 320
WIRE 432 352 240 352
WIRE 608 352 608 320
WIRE 608 352 432 352
WIRE 432 368 432 352
FLAG 432 368 0
FLAG 1216 80 0
FLAG 608 -48 out
FLAG 928 48 0
SYMBOL res 896 -64 R90
WINDOW 0 0 56 VBottom 2
WINDOW 3 32 56 VTop 2
SYMATTR InstName R3
SYMATTR Value 51
SYMBOL res 1104 -64 R90
WINDOW 0 0 56 VBottom 2
WINDOW 3 32 56 VTop 2
SYMATTR InstName R4
SYMATTR Value 11
SYMBOL voltage 1216 -48 R0
WINDOW 123 0 0 Left 0
WINDOW 39 0 0 Left 0
SYMATTR InstName V1
SYMATTR Value 5
SYMBOL res 224 -64 R0
SYMATTR InstName RA
SYMATTR Value 600
SYMBOL res 224 224 R0
SYMATTR InstName RB
SYMATTR Value 2000
SYMBOL res 592 224 R0
SYMATTR InstName RD
SYMATTR Value 4
SYMBOL res 416 224 R0
SYMATTR InstName RC
SYMATTR Value 100
SYMBOL npn 368 48 R0
SYMATTR InstName Q1
SYMATTR Value T1
SYMBOL npn 544 128 R0
SYMATTR InstName Q2
SYMATTR Value T1 0.5
SYMBOL cap 912 -16 R0
SYMATTR InstName C1
SYMATTR Value 1µ
TEXT -512 48 Left 2 !;ac dec 10 0.01 10G
TEXT -504 16 Left 2 !.op
TEXT -480 96 Left 2 !.MODEL T1 NPN(\n+ IS = 2.6e-015 BF = 105 NF = 1.021 VAF = 1000\n+ IKF = 2.262 ISE = 2.978E-12 NE = 3.355 BR = 100\n+ NR = 1 VAR = 1.2 IKR = 0.00631 ISC = 1.923E-14\n+ NC = 2.179 RB = 2.674 IRB = 1.8E-05 RBM = 2.506\n+ RE = 0.472 RC = 2.105 XTB = -0.9 EG = 1.114\n+ XTI = 3.43 CJE = 3.716E-13 VJE = 0.8986 MJE = 0.3152\n+ TF = 1.306E-12 XTF = 2.71 VTF = 0.492 ITF = 2.444\n+ PTF = 0 CJC = 2.256E-13 VJC = 0.7395 MJC = 0.3926\n+ XCJC = 1 TR = 3.884E-10 CJS = 6E-14 VJS = 0.5\n+ MJS = 0.5 FC = 0.8215)
